<?xml version="1.0" encoding="UTF-8"?>
<flow xmlns="http://www.springframework.org/schema/webflow"
      xmlns:xsi="http://www.w3.org/2001/XMLSchema-instance"
      xsi:schemaLocation="http://www.springframework.org/schema/webflow
                          http://www.springframework.org/schema/webflow/spring-webflow-2.0.xsd">
 
	<!-- Executed when webFlow is triggered -->
	<var name="cartlist" class="com.womenadda.controller.ShoppingCartController"></var>
	<on-start>
	<!-- shoppingcartController is java class available through annotated S.java clashoppingCartController.here we are calling it’s initFlow() method. -->
	  <evaluate expression="shoppingCartController.initFlow()" result="flowScope.cartlist"/>
	</on-start>
 
	 <!-- if not specified the first view state is the starting state -->
	<view-state id="start" view="order" model="flowScope.cartlist">
	   <transition on="submit" to="calladdress"/>
	</view-state>
	
	
	<action-state id="calladdress">
	<evaluate expression="shoppingCartController.getAddress()" result="flowscope.uaddress"></evaluate>
	   <transition on="success" to="address"/>
	</action-state>
	
	<view-state id="address" view="userAddress" model="flowScope.uaddress">
	   <transition on="edit" to="start"/>
	   <transition on="submit" to="insertAddress"/>
	</view-state>
	
	<action-state id="insertAddress">
	<evaluate expression="userController.insertAddress(flowscope.uaddress,messageContext)" result="flowscope.uaddress"></evaluate>
	   <transition on="success" to="getAdd"/>
	</action-state>
	
	
	<action-state id="getAdd">
	<evaluate expression="userController.getAdd()" result="flowscope.uaddress"></evaluate>
	   <transition on="success" to="thankyou"/>
	</action-state>
	
	
	<view-state id="thankyou" view="thankYou" model="flowScope.uaddress">
	   
	   <transition on="submit" to="toHome"/>
	</view-state>
	<end-state id="toHome" view="externalRedirect:index" />
	<!-- <end-state id="toException" view="externalRedirect:contextRelative:exception.jsp" /> -->
 
	<!-- these events are available in every state-->
	<global-transitions>
		<transition on="home" to="index" />
<!-- 		<transition on="error" to="toException" /> -->
	</global-transitions>
</flow>